<?xml version="1.0" encoding="ISO-8859-1"?>
<febio_spec version="3.0">
	<Module type="biphasic"/>
	<Control>
		<analysis>STEADY-STATE</analysis>
		<time_steps>100</time_steps>
		<step_size>0.1</step_size>
		<solver>
			<max_refs>15</max_refs>
			<max_ups>10</max_ups>
			<diverge_reform>1</diverge_reform>
			<reform_each_time_step>1</reform_each_time_step>
			<dtol>0.001</dtol>
			<etol>0.01</etol>
			<rtol>0</rtol>
			<ptol>0.01</ptol>
			<lstol>0.9</lstol>
			<min_residual>1e-20</min_residual>
			<qnmethod>BROYDEN</qnmethod>
			<mixed_formulation>default</mixed_formulation>
			<symmetric_stiffness>0</symmetric_stiffness>
		</solver>
		<time_stepper>
			<dtmin>0.01</dtmin>
			<dtmax>0.1</dtmax>
			<max_retries>5</max_retries>
			<opt_iter>10</opt_iter>
		</time_stepper>
	</Control>
	<Globals>
		<Constants>
			<T>0</T>
			<R>0</R>
			<Fc>0</Fc>
		</Constants>
	</Globals>
	<Material>
		<material id="1" name="Material1" type="biphasic">
			<phi0>0</phi0>
			<fluid_density>1</fluid_density>
			<tau>0</tau>
			<solid type="neo-Hookean">
				<density>1</density>
				<E>0.1</E>
				<v>0.3</v>
			</solid>
			<permeability type="perm-Holmes-Mow">
				<perm>0.171</perm>
				<M>30.445</M>
				<alpha>0</alpha>
			</permeability>
		</material>
		<material id="2" name="Material2" type="biphasic">
			<phi0>0</phi0>
			<fluid_density>1</fluid_density>
			<tau>0</tau>
			<solid type="neo-Hookean">
				<density>1</density>
				<E>1</E>
				<v>0.2</v>
			</solid>
			<permeability type="perm-Holmes-Mow">
				<perm>0.171</perm>
				<M>30.445</M>
				<alpha>0</alpha>
			</permeability>
		</material>
	</Material>
	<Mesh>
		<Nodes name="MergedObject1">
			<node id="1">-0.5,-0.5,0</node>
			<node id="2">-0.5,0.5,0</node>
			<node id="3">-0.5,-0.5,1</node>
			<node id="4">-0.5,0.5,1</node>
			<node id="5">-0.4,-0.5,0</node>
			<node id="6">-0.3,-0.5,0</node>
			<node id="7">-0.2,-0.5,0</node>
			<node id="8">-0.1,-0.5,0</node>
			<node id="9">0,-0.5,0</node>
			<node id="10">0.1,-0.5,0</node>
			<node id="11">0.2,-0.5,0</node>
			<node id="12">0.3,-0.5,0</node>
			<node id="13">0.4,-0.5,0</node>
			<node id="14">0.5,-0.5,0.1</node>
			<node id="15">0.5,-0.5,0.2</node>
			<node id="16">0.5,-0.5,0.3</node>
			<node id="17">0.5,-0.5,0.4</node>
			<node id="18">0.5,-0.5,0.5</node>
			<node id="19">0.5,-0.5,0.6</node>
			<node id="20">0.5,-0.5,0.7</node>
<!-- ... 2521 like lines cut -->
		</Nodes>
		<Elements type="hex8" name="Part1">
			<elem id="1">1,5,509,103,40,113,599,364</elem>
			<elem id="2">5,6,510,509,113,114,600,599</elem>
			<elem id="3">6,7,511,510,114,115,601,600</elem>
			<elem id="4">7,8,512,511,115,116,602,601</elem>
			<elem id="5">8,9,513,512,116,117,603,602</elem>
			<elem id="6">9,10,514,513,117,118,604,603</elem>
			<elem id="7">10,11,515,514,118,119,605,604</elem>
			<elem id="8">11,12,516,515,119,120,606,605</elem>
			<elem id="9">12,13,517,516,120,121,607,606</elem>
			<elem id="10">13,1328,41,517,121,14,194,607</elem>
			<elem id="11">103,509,500,102,364,599,608,363</elem>
			<elem id="12">509,510,501,500,599,600,609,608</elem>
			<elem id="13">510,511,502,501,600,601,610,609</elem>
			<elem id="14">511,512,503,502,601,602,611,610</elem>
			<elem id="15">512,513,504,503,602,603,612,611</elem>
			<elem id="16">513,514,505,504,603,604,613,612</elem>
			<elem id="17">514,515,506,505,604,605,614,613</elem>
			<elem id="18">515,516,507,506,605,606,615,614</elem>
			<elem id="19">516,517,508,507,606,607,616,615</elem>
			<elem id="20">517,41,42,508,607,194,195,616</elem>
<!-- ... 980 like lines cut -->
		</Elements>
		<Elements type="hex8" name="Part2">
			<elem id="1001">1328,1336,1723,41,14,1408,1813,194</elem>
			<elem id="1002">1336,1337,1724,1723,1408,1409,1814,1813</elem>
			<elem id="1003">1337,1338,1725,1724,1409,1410,1815,1814</elem>
			<elem id="1004">1338,1339,1726,1725,1410,1411,1816,1815</elem>
			<elem id="1005">1339,1340,1727,1726,1411,1412,1817,1816</elem>
			<elem id="1006">1340,1341,1728,1727,1412,1413,1818,1817</elem>
			<elem id="1007">1341,1342,1729,1728,1413,1414,1819,1818</elem>
			<elem id="1008">1342,1343,1730,1729,1414,1415,1820,1819</elem>
			<elem id="1009">1343,1344,1731,1730,1415,1416,1821,1820</elem>
			<elem id="1010">1344,1329,1363,1731,1416,1345,1489,1821</elem>
			<elem id="1011">41,1723,1714,42,194,1813,1822,195</elem>
			<elem id="1012">1723,1724,1715,1714,1813,1814,1823,1822</elem>
			<elem id="1013">1724,1725,1716,1715,1814,1815,1824,1823</elem>
			<elem id="1014">1725,1726,1717,1716,1815,1816,1825,1824</elem>
			<elem id="1015">1726,1727,1718,1717,1816,1817,1826,1825</elem>
			<elem id="1016">1727,1728,1719,1718,1817,1818,1827,1826</elem>
			<elem id="1017">1728,1729,1720,1719,1818,1819,1828,1827</elem>
			<elem id="1018">1729,1730,1721,1720,1819,1820,1829,1828</elem>
			<elem id="1019">1730,1731,1722,1721,1820,1821,1830,1829</elem>
			<elem id="1020">1731,1363,1364,1722,1821,1489,1490,1830</elem>
<!-- ... 980 like lines cut -->
		</Elements>
		<Surface name="FixedDisplacement1">
			<quad4 id="1">1,5,113,40</quad4>
			<quad4 id="2">5,6,114,113</quad4>
			<quad4 id="3">6,7,115,114</quad4>
			<quad4 id="4">7,8,116,115</quad4>
			<quad4 id="5">8,9,117,116</quad4>
			<quad4 id="6">9,10,118,117</quad4>
			<quad4 id="7">10,11,119,118</quad4>
			<quad4 id="8">11,12,120,119</quad4>
			<quad4 id="9">12,13,121,120</quad4>
			<quad4 id="10">13,1328,14,121</quad4>
			<quad4 id="11">40,113,122,39</quad4>
			<quad4 id="12">113,114,123,122</quad4>
			<quad4 id="13">114,115,124,123</quad4>
			<quad4 id="14">115,116,125,124</quad4>
			<quad4 id="15">116,117,126,125</quad4>
			<quad4 id="16">117,118,127,126</quad4>
			<quad4 id="17">118,119,128,127</quad4>
			<quad4 id="18">119,120,129,128</quad4>
			<quad4 id="19">120,121,130,129</quad4>
			<quad4 id="20">121,14,15,130</quad4>
<!-- ... 180 like lines cut -->
		</Surface>
		<Surface name="FixedDisplacement2">
			<quad4 id="1">103,509,5,1</quad4>
			<quad4 id="2">509,510,6,5</quad4>
			<quad4 id="3">510,511,7,6</quad4>
			<quad4 id="4">511,512,8,7</quad4>
			<quad4 id="5">512,513,9,8</quad4>
			<quad4 id="6">513,514,10,9</quad4>
			<quad4 id="7">514,515,11,10</quad4>
			<quad4 id="8">515,516,12,11</quad4>
			<quad4 id="9">516,517,13,12</quad4>
			<quad4 id="10">517,41,1328,13</quad4>
			<quad4 id="11">102,500,509,103</quad4>
			<quad4 id="12">500,501,510,509</quad4>
			<quad4 id="13">501,502,511,510</quad4>
			<quad4 id="14">502,503,512,511</quad4>
			<quad4 id="15">503,504,513,512</quad4>
			<quad4 id="16">504,505,514,513</quad4>
			<quad4 id="17">505,506,515,514</quad4>
			<quad4 id="18">506,507,516,515</quad4>
			<quad4 id="19">507,508,517,516</quad4>
			<quad4 id="20">508,42,41,517</quad4>
<!-- ... 180 like lines cut -->
		</Surface>
		<Surface name="FixedDisplacement3">
			<quad4 id="1">103,1,40,364</quad4>
			<quad4 id="2">102,103,364,363</quad4>
			<quad4 id="3">101,102,363,362</quad4>
			<quad4 id="4">100,101,362,361</quad4>
			<quad4 id="5">99,100,361,360</quad4>
			<quad4 id="6">98,99,360,359</quad4>
			<quad4 id="7">97,98,359,358</quad4>
			<quad4 id="8">96,97,358,357</quad4>
			<quad4 id="9">95,96,357,356</quad4>
			<quad4 id="10">2,95,356,77</quad4>
			<quad4 id="11">364,40,39,373</quad4>
			<quad4 id="12">363,364,373,372</quad4>
			<quad4 id="13">362,363,372,371</quad4>
			<quad4 id="14">361,362,371,370</quad4>
			<quad4 id="15">360,361,370,369</quad4>
			<quad4 id="16">359,360,369,368</quad4>
			<quad4 id="17">358,359,368,367</quad4>
			<quad4 id="18">357,358,367,366</quad4>
			<quad4 id="19">356,357,366,365</quad4>
			<quad4 id="20">77,356,365,78</quad4>
<!-- ... 180 like lines cut -->
		</Surface>
		<Surface name="FixedEffectiveFluidPressure1">
			<quad4 id="1">103,1,40,364</quad4>
			<quad4 id="2">102,103,364,363</quad4>
			<quad4 id="3">101,102,363,362</quad4>
			<quad4 id="4">100,101,362,361</quad4>
			<quad4 id="5">99,100,361,360</quad4>
			<quad4 id="6">98,99,360,359</quad4>
			<quad4 id="7">97,98,359,358</quad4>
			<quad4 id="8">96,97,358,357</quad4>
			<quad4 id="9">95,96,357,356</quad4>
			<quad4 id="10">2,95,356,77</quad4>
			<quad4 id="11">364,40,39,373</quad4>
			<quad4 id="12">363,364,373,372</quad4>
			<quad4 id="13">362,363,372,371</quad4>
			<quad4 id="14">361,362,371,370</quad4>
			<quad4 id="15">360,361,370,369</quad4>
			<quad4 id="16">359,360,369,368</quad4>
			<quad4 id="17">358,359,368,367</quad4>
			<quad4 id="18">357,358,367,366</quad4>
			<quad4 id="19">356,357,366,365</quad4>
			<quad4 id="20">77,356,365,78</quad4>
<!-- ... 180 like lines cut -->
		</Surface>
		<Surface name="PrescribedEffectiveFluidPressure1">
			<quad4 id="1">13,1328,14,121</quad4>
			<quad4 id="2">1328,1336,1408,14</quad4>
		</Surface>
	</Mesh>
	<MeshDomains>
		<SolidDomain name="Part1" mat="Material1"/>
		<SolidDomain name="Part2" mat="Material2"/>
	</MeshDomains>
	<Boundary>
		<bc name="FixedDisplacement1" type="fix" node_set="@surface:FixedDisplacement1">
			<dofs>y</dofs>
		</bc>
		<bc name="FixedDisplacement2" type="fix" node_set="@surface:FixedDisplacement2">
			<dofs>z</dofs>
		</bc>
		<bc name="FixedDisplacement3" type="fix" node_set="@surface:FixedDisplacement3">
			<dofs>x</dofs>
		</bc>
		<bc name="FixedEffectiveFluidPressure1" type="fix" node_set="@surface:FixedEffectiveFluidPressure1">
			<dofs>p</dofs>
		</bc>
		<bc name="PrescribedEffectiveFluidPressure1" type="prescribe" node_set="@surface:PrescribedEffectiveFluidPressure1">
			<dof>p</dof>
			<scale lc="1">0.1</scale>
			<relative>0</relative>
		</bc>
	</Boundary>
	<LoadData>
		<load_controller id="1" type="loadcurve">
			<interpolate>SMOOTH</interpolate>
			<points>
				<point>0,0</point>
				<point>5,1</point>
			</points>
		</load_controller>
	</LoadData>
	<Output>
		<plotfile type="febio">
			<var type="displacement"/>
			<var type="relative volume"/>
			<var type="stress"/>
			<var type="effective fluid pressure"/>
			<var type="fluid flux"/>
			<var type="permeability"/>
			<var type="solid stress"/>
		</plotfile>
	</Output>
</febio_spec>
