<?xml version="1.0" encoding="ISO-8859-1"?>
<febio_spec version="3.0">
	<Module type="biphasic"/>
	<Control>
		<analysis>TRANSIENT</analysis>
		<time_steps>100</time_steps>
		<step_size>0.1</step_size>
		<solver>
			<max_refs>15</max_refs>
			<max_ups>10</max_ups>
			<diverge_reform>1</diverge_reform>
			<reform_each_time_step>1</reform_each_time_step>
			<dtol>0.001</dtol>
			<etol>0.01</etol>
			<rtol>0</rtol>
			<ptol>0.01</ptol>
			<lstol>0.9</lstol>
			<min_residual>1e-20</min_residual>
			<qnmethod>BROYDEN</qnmethod>
			<mixed_formulation>default</mixed_formulation>
			<symmetric_stiffness>0</symmetric_stiffness>
		</solver>
		<time_stepper>
			<dtmin>0.001</dtmin>
			<dtmax>0.2</dtmax>
			<max_retries>5</max_retries>
			<opt_iter>10</opt_iter>
		</time_stepper>
	</Control>
	<Globals>
		<Constants>
			<T>0</T>
			<R>0</R>
			<Fc>0</Fc>
		</Constants>
	</Globals>
	<Material>
		<material id="1" name="Material1" type="biphasic">
			<phi0>0</phi0>
			<fluid_density>1</fluid_density>
			<tau>0</tau>
			<solid type="blatzkop">
				<density>1</density>
				<mu>0.001777</mu>
				<v>0.386</v>
				<phi>.0</phi>
			</solid>
			<permeability type="perm-Holmes-Mow">
				<perm>0.171</perm>
				<M>30.445</M>
				<alpha>0</alpha>
			</permeability>
		</material>
	</Material>
	<Mesh>
		<Nodes name="Object1">
			<node id="1">-0.5,-0.5,0</node>
			<node id="2">0.5,-0.5,0</node>
			<node id="3">0.5,0.5,0</node>
			<node id="4">-0.5,0.5,0</node>
			<node id="5">-0.5,-0.5,1</node>
			<node id="6">0.5,-0.5,1</node>
			<node id="7">0.5,0.5,1</node>
			<node id="8">-0.5,0.5,1</node>
			<node id="9">-0.447368421,-0.5,0</node>
			<node id="10">-0.394736842,-0.5,0</node>
			<node id="11">-0.342105263,-0.5,0</node>
			<node id="12">-0.289473684,-0.5,0</node>
			<node id="13">-0.236842105,-0.5,0</node>
			<node id="14">-0.184210526,-0.5,0</node>
			<node id="15">-0.131578947,-0.5,0</node>
			<node id="16">-0.0789473684,-0.5,0</node>
			<node id="17">-0.0263157895,-0.5,0</node>
			<node id="18">0.0263157895,-0.5,0</node>
			<node id="19">0.0789473684,-0.5,0</node>
			<node id="20">0.131578947,-0.5,0</node>
<!-- ... 7980 like lines cut -->
		</Nodes>
		<Elements type="hex8" name="Part1">
			<elem id="1">1,9,1827,206,80,225,2169,1214</elem>
			<elem id="2">9,10,1828,1827,225,226,2170,2169</elem>
			<elem id="3">10,11,1829,1828,226,227,2171,2170</elem>
			<elem id="4">11,12,1830,1829,227,228,2172,2171</elem>
			<elem id="5">12,13,1831,1830,228,229,2173,2172</elem>
			<elem id="6">13,14,1832,1831,229,230,2174,2173</elem>
			<elem id="7">14,15,1833,1832,230,231,2175,2174</elem>
			<elem id="8">15,16,1834,1833,231,232,2176,2175</elem>
			<elem id="9">16,17,1835,1834,232,233,2177,2176</elem>
			<elem id="10">17,18,1836,1835,233,234,2178,2177</elem>
			<elem id="11">18,19,1837,1836,234,235,2179,2178</elem>
			<elem id="12">19,20,1838,1837,235,236,2180,2179</elem>
			<elem id="13">20,21,1839,1838,236,237,2181,2180</elem>
			<elem id="14">21,22,1840,1839,237,238,2182,2181</elem>
			<elem id="15">22,23,1841,1840,238,239,2183,2182</elem>
			<elem id="16">23,24,1842,1841,239,240,2184,2183</elem>
			<elem id="17">24,25,1843,1842,240,241,2185,2184</elem>
			<elem id="18">25,26,1844,1843,241,242,2186,2185</elem>
			<elem id="19">26,2,81,1844,242,27,549,2186</elem>
			<elem id="20">206,1827,1809,205,1214,2169,2187,1213</elem>
<!-- ... 6839 like lines cut -->
		</Elements>
		<NodeSet name="PrescribedEffectiveFluidPressure1">
			<n id="35"/>
			<n id="36"/>
			<n id="386"/>
			<n id="404"/>
			<n id="693"/>
			<n id="711"/>
			<n id="4778"/>
			<n id="5102"/>
		</NodeSet>
		<Surface name="FixedDisplacement1">
			<quad4 id="1">2,81,549,27</quad4>
			<quad4 id="2">81,82,550,549</quad4>
			<quad4 id="3">82,83,551,550</quad4>
			<quad4 id="4">83,84,552,551</quad4>
			<quad4 id="5">84,85,553,552</quad4>
			<quad4 id="6">85,86,554,553</quad4>
			<quad4 id="7">86,87,555,554</quad4>
			<quad4 id="8">87,88,556,555</quad4>
			<quad4 id="9">88,89,557,556</quad4>
			<quad4 id="10">89,90,558,557</quad4>
			<quad4 id="11">90,91,559,558</quad4>
			<quad4 id="12">91,92,560,559</quad4>
			<quad4 id="13">92,93,561,560</quad4>
			<quad4 id="14">93,94,562,561</quad4>
			<quad4 id="15">94,95,563,562</quad4>
			<quad4 id="16">95,96,564,563</quad4>
			<quad4 id="17">96,97,565,564</quad4>
			<quad4 id="18">97,98,566,565</quad4>
			<quad4 id="19">98,3,99,566</quad4>
			<quad4 id="20">27,549,567,28</quad4>
<!-- ... 341 like lines cut -->
		</Surface>
		<Surface name="FixedDisplacement2">
			<quad4 id="1">1,9,225,80</quad4>
			<quad4 id="2">9,10,226,225</quad4>
			<quad4 id="3">10,11,227,226</quad4>
			<quad4 id="4">11,12,228,227</quad4>
			<quad4 id="5">12,13,229,228</quad4>
			<quad4 id="6">13,14,230,229</quad4>
			<quad4 id="7">14,15,231,230</quad4>
			<quad4 id="8">15,16,232,231</quad4>
			<quad4 id="9">16,17,233,232</quad4>
			<quad4 id="10">17,18,234,233</quad4>
			<quad4 id="11">18,19,235,234</quad4>
			<quad4 id="12">19,20,236,235</quad4>
			<quad4 id="13">20,21,237,236</quad4>
			<quad4 id="14">21,22,238,237</quad4>
			<quad4 id="15">22,23,239,238</quad4>
			<quad4 id="16">23,24,240,239</quad4>
			<quad4 id="17">24,25,241,240</quad4>
			<quad4 id="18">25,26,242,241</quad4>
			<quad4 id="19">26,2,27,242</quad4>
			<quad4 id="20">80,225,243,79</quad4>
<!-- ... 341 like lines cut -->
		</Surface>
		<Surface name="FixedDisplacement3">
			<quad4 id="1">4,152,1521,189</quad4>
			<quad4 id="2">152,151,1522,1521</quad4>
			<quad4 id="3">151,150,1523,1522</quad4>
			<quad4 id="4">150,149,1524,1523</quad4>
			<quad4 id="5">149,148,1525,1524</quad4>
			<quad4 id="6">148,147,1526,1525</quad4>
			<quad4 id="7">147,146,1527,1526</quad4>
			<quad4 id="8">146,145,1528,1527</quad4>
			<quad4 id="9">145,144,1529,1528</quad4>
			<quad4 id="10">144,143,1530,1529</quad4>
			<quad4 id="11">143,142,1531,1530</quad4>
			<quad4 id="12">142,141,1532,1531</quad4>
			<quad4 id="13">141,140,1533,1532</quad4>
			<quad4 id="14">140,139,1534,1533</quad4>
			<quad4 id="15">139,138,1535,1534</quad4>
			<quad4 id="16">138,137,1536,1535</quad4>
			<quad4 id="17">137,136,1537,1536</quad4>
			<quad4 id="18">136,135,1538,1537</quad4>
			<quad4 id="19">135,3,98,1538</quad4>
			<quad4 id="20">189,1521,1539,190</quad4>
<!-- ... 341 like lines cut -->
		</Surface>
		<Surface name="FixedEffectiveFluidPressure1">
			<quad4 id="1">5,62,1845,207</quad4>
			<quad4 id="2">62,61,1846,1845</quad4>
			<quad4 id="3">61,60,1847,1846</quad4>
			<quad4 id="4">60,59,1848,1847</quad4>
			<quad4 id="5">59,58,1849,1848</quad4>
			<quad4 id="6">58,57,1850,1849</quad4>
			<quad4 id="7">57,56,1851,1850</quad4>
			<quad4 id="8">56,55,1852,1851</quad4>
			<quad4 id="9">55,54,1853,1852</quad4>
			<quad4 id="10">54,53,1854,1853</quad4>
			<quad4 id="11">53,52,1855,1854</quad4>
			<quad4 id="12">52,51,1856,1855</quad4>
			<quad4 id="13">51,50,1857,1856</quad4>
			<quad4 id="14">50,49,1858,1857</quad4>
			<quad4 id="15">49,48,1859,1858</quad4>
			<quad4 id="16">48,47,1860,1859</quad4>
			<quad4 id="17">47,46,1861,1860</quad4>
			<quad4 id="18">46,45,1862,1861</quad4>
			<quad4 id="19">45,6,134,1862</quad4>
			<quad4 id="20">207,1845,1863,208</quad4>
<!-- ... 341 like lines cut -->
		</Surface>
	</Mesh>
	<MeshDomains>
		<SolidDomain name="Part1" mat="Material1"/>
	</MeshDomains>
	<Boundary>
		<bc name="FixedDisplacement1" type="fix" node_set="@surface:FixedDisplacement1">
			<dofs>x</dofs>
		</bc>
		<bc name="FixedDisplacement2" type="fix" node_set="@surface:FixedDisplacement2">
			<dofs>y</dofs>
		</bc>
		<bc name="FixedDisplacement3" type="fix" node_set="@surface:FixedDisplacement3">
			<dofs>z</dofs>
		</bc>
		<bc name="FixedEffectiveFluidPressure1" type="fix" node_set="@surface:FixedEffectiveFluidPressure1">
			<dofs>p</dofs>
		</bc>
		<bc name="PrescribedEffectiveFluidPressure1" type="prescribe" node_set="PrescribedEffectiveFluidPressure1">
			<dof>p</dof>
			<scale lc="1">0.002</scale>
			<relative>0</relative>
		</bc>
	</Boundary>
	<LoadData>
		<load_controller id="1" type="loadcurve">
			<interpolate>SMOOTH</interpolate>
			<points>
				<point>0,0</point>
				<point>1,1</point>
			</points>
		</load_controller>
	</LoadData>
	<Output>
		<plotfile type="febio">
			<var type="displacement"/>
			<var type="Lagrange strain"/>
			<var type="fluid pressure"/>
		</plotfile>
	</Output>
</febio_spec>
