<?xml version="1.0" encoding="ISO-8859-1"?>
<febio_spec version="3.0">
	<Module type="biphasic"/>
	<Control>
		<analysis>TRANSIENT</analysis>
		<time_steps>20</time_steps>
		<step_size>0.1</step_size>
		<solver>
			<max_refs>15</max_refs>
			<max_ups>10</max_ups>
			<diverge_reform>1</diverge_reform>
			<reform_each_time_step>1</reform_each_time_step>
			<dtol>0.001</dtol>
			<etol>0.01</etol>
			<rtol>0</rtol>
			<ptol>0.01</ptol>
			<lstol>0.9</lstol>
			<min_residual>1e-20</min_residual>
			<qnmethod>BROYDEN</qnmethod>
			<mixed_formulation>default</mixed_formulation>
			<symmetric_stiffness>0</symmetric_stiffness>
		</solver>
		<time_stepper>
			<dtmin>0.001</dtmin>
			<dtmax>0.5</dtmax>
			<max_retries>5</max_retries>
			<opt_iter>10</opt_iter>
		</time_stepper>
	</Control>
	<Globals>
		<Constants>
			<T>0</T>
			<R>0</R>
			<Fc>0</Fc>
		</Constants>
	</Globals>
	<Material>
		<material id="1" name="Material1" type="biphasic">
			<phi0>0</phi0>
			<fluid_density>1</fluid_density>
			<tau>0</tau>
			<solid type="blatzkop">
				<density>1</density>
				<mu>0.00176495</mu>
				<v>0.38662822</v>
				<phi>.000007781</phi>
			</solid>
			<permeability type="perm-Holmes-Mow">
				<perm>0.171</perm>
				<M>30.445</M>
				<alpha>0</alpha>
			</permeability>
		</material>
	</Material>
	<Mesh>
		<Nodes name="Object1">
			<node id="1">-0.5,-0.5,0</node>
			<node id="2">0.5,-0.5,0</node>
			<node id="3">0.5,0.5,0</node>
			<node id="4">-0.5,0.5,0</node>
			<node id="5">-0.5,-0.5,1</node>
			<node id="6">0.5,-0.5,1</node>
			<node id="7">0.5,0.5,1</node>
			<node id="8">-0.5,0.5,1</node>
			<node id="9">-0.46,-0.5,0</node>
			<node id="10">-0.42,-0.5,0</node>
			<node id="11">-0.38,-0.5,0</node>
			<node id="12">-0.34,-0.5,0</node>
			<node id="13">-0.3,-0.5,0</node>
			<node id="14">-0.26,-0.5,0</node>
			<node id="15">-0.22,-0.5,0</node>
			<node id="16">-0.18,-0.5,0</node>
			<node id="17">-0.14,-0.5,0</node>
			<node id="18">-0.1,-0.5,0</node>
			<node id="19">-0.06,-0.5,0</node>
			<node id="20">-0.02,-0.5,0</node>
<!-- ... 17556 like lines cut -->
		</Nodes>
		<Elements type="hex8" name="Part1">
			<elem id="1">1,9,3153,272,104,297,3753,2048</elem>
			<elem id="2">9,10,3154,3153,297,298,3754,3753</elem>
			<elem id="3">10,11,3155,3154,298,299,3755,3754</elem>
			<elem id="4">11,12,3156,3155,299,300,3756,3755</elem>
			<elem id="5">12,13,3157,3156,300,301,3757,3756</elem>
			<elem id="6">13,14,3158,3157,301,302,3758,3757</elem>
			<elem id="7">14,15,3159,3158,302,303,3759,3758</elem>
			<elem id="8">15,16,3160,3159,303,304,3760,3759</elem>
			<elem id="9">16,17,3161,3160,304,305,3761,3760</elem>
			<elem id="10">17,18,3162,3161,305,306,3762,3761</elem>
			<elem id="11">18,19,3163,3162,306,307,3763,3762</elem>
			<elem id="12">19,20,3164,3163,307,308,3764,3763</elem>
			<elem id="13">20,21,3165,3164,308,309,3765,3764</elem>
			<elem id="14">21,22,3166,3165,309,310,3766,3765</elem>
			<elem id="15">22,23,3167,3166,310,311,3767,3766</elem>
			<elem id="16">23,24,3168,3167,311,312,3768,3767</elem>
			<elem id="17">24,25,3169,3168,312,313,3769,3768</elem>
			<elem id="18">25,26,3170,3169,313,314,3770,3769</elem>
			<elem id="19">26,27,3171,3170,314,315,3771,3770</elem>
			<elem id="20">27,28,3172,3171,315,316,3772,3771</elem>
<!-- ... 15605 like lines cut -->
		</Elements>
		<NodeSet name="PrescribedEffectiveFluidPressure1">
			<n id="162"/>
			<n id="163"/>
			<n id="164"/>
			<n id="165"/>
			<n id="166"/>
			<n id="167"/>
			<n id="1434"/>
			<n id="1435"/>
			<n id="1436"/>
			<n id="1437"/>
			<n id="1438"/>
			<n id="1439"/>
			<n id="3416"/>
			<n id="3440"/>
			<n id="3464"/>
			<n id="3488"/>
			<n id="3512"/>
			<n id="3536"/>
			<n id="17240"/>
			<n id="17264"/>
<!-- ... 4 like lines cut -->
		</NodeSet>
		<Surface name="FixedDisplacement1">
			<quad4 id="1">2,105,873,33</quad4>
			<quad4 id="2">105,106,874,873</quad4>
			<quad4 id="3">106,107,875,874</quad4>
			<quad4 id="4">107,108,876,875</quad4>
			<quad4 id="5">108,109,877,876</quad4>
			<quad4 id="6">109,110,878,877</quad4>
			<quad4 id="7">110,111,879,878</quad4>
			<quad4 id="8">111,112,880,879</quad4>
			<quad4 id="9">112,113,881,880</quad4>
			<quad4 id="10">113,114,882,881</quad4>
			<quad4 id="11">114,115,883,882</quad4>
			<quad4 id="12">115,116,884,883</quad4>
			<quad4 id="13">116,117,885,884</quad4>
			<quad4 id="14">117,118,886,885</quad4>
			<quad4 id="15">118,119,887,886</quad4>
			<quad4 id="16">119,120,888,887</quad4>
			<quad4 id="17">120,121,889,888</quad4>
			<quad4 id="18">121,122,890,889</quad4>
			<quad4 id="19">122,123,891,890</quad4>
			<quad4 id="20">123,124,892,891</quad4>
<!-- ... 605 like lines cut -->
		</Surface>
		<Surface name="FixedDisplacement2">
			<quad4 id="1">1,9,297,104</quad4>
			<quad4 id="2">9,10,298,297</quad4>
			<quad4 id="3">10,11,299,298</quad4>
			<quad4 id="4">11,12,300,299</quad4>
			<quad4 id="5">12,13,301,300</quad4>
			<quad4 id="6">13,14,302,301</quad4>
			<quad4 id="7">14,15,303,302</quad4>
			<quad4 id="8">15,16,304,303</quad4>
			<quad4 id="9">16,17,305,304</quad4>
			<quad4 id="10">17,18,306,305</quad4>
			<quad4 id="11">18,19,307,306</quad4>
			<quad4 id="12">19,20,308,307</quad4>
			<quad4 id="13">20,21,309,308</quad4>
			<quad4 id="14">21,22,310,309</quad4>
			<quad4 id="15">22,23,311,310</quad4>
			<quad4 id="16">23,24,312,311</quad4>
			<quad4 id="17">24,25,313,312</quad4>
			<quad4 id="18">25,26,314,313</quad4>
			<quad4 id="19">26,27,315,314</quad4>
			<quad4 id="20">27,28,316,315</quad4>
<!-- ... 605 like lines cut -->
		</Surface>
		<Surface name="FixedDisplacement3">
			<quad4 id="1">4,200,2601,249</quad4>
			<quad4 id="2">200,199,2602,2601</quad4>
			<quad4 id="3">199,198,2603,2602</quad4>
			<quad4 id="4">198,197,2604,2603</quad4>
			<quad4 id="5">197,196,2605,2604</quad4>
			<quad4 id="6">196,195,2606,2605</quad4>
			<quad4 id="7">195,194,2607,2606</quad4>
			<quad4 id="8">194,193,2608,2607</quad4>
			<quad4 id="9">193,192,2609,2608</quad4>
			<quad4 id="10">192,191,2610,2609</quad4>
			<quad4 id="11">191,190,2611,2610</quad4>
			<quad4 id="12">190,189,2612,2611</quad4>
			<quad4 id="13">189,188,2613,2612</quad4>
			<quad4 id="14">188,187,2614,2613</quad4>
			<quad4 id="15">187,186,2615,2614</quad4>
			<quad4 id="16">186,185,2616,2615</quad4>
			<quad4 id="17">185,184,2617,2616</quad4>
			<quad4 id="18">184,183,2618,2617</quad4>
			<quad4 id="19">183,182,2619,2618</quad4>
			<quad4 id="20">182,181,2620,2619</quad4>
<!-- ... 605 like lines cut -->
		</Surface>
		<Surface name="FixedEffectiveFluidPressure1">
			<quad4 id="1">5,80,3177,273</quad4>
			<quad4 id="2">80,79,3178,3177</quad4>
			<quad4 id="3">79,78,3179,3178</quad4>
			<quad4 id="4">78,77,3180,3179</quad4>
			<quad4 id="5">77,76,3181,3180</quad4>
			<quad4 id="6">76,75,3182,3181</quad4>
			<quad4 id="7">75,74,3183,3182</quad4>
			<quad4 id="8">74,73,3184,3183</quad4>
			<quad4 id="9">73,72,3185,3184</quad4>
			<quad4 id="10">72,71,3186,3185</quad4>
			<quad4 id="11">71,70,3187,3186</quad4>
			<quad4 id="12">70,69,3188,3187</quad4>
			<quad4 id="13">69,68,3189,3188</quad4>
			<quad4 id="14">68,67,3190,3189</quad4>
			<quad4 id="15">67,66,3191,3190</quad4>
			<quad4 id="16">66,65,3192,3191</quad4>
			<quad4 id="17">65,64,3193,3192</quad4>
			<quad4 id="18">64,63,3194,3193</quad4>
			<quad4 id="19">63,62,3195,3194</quad4>
			<quad4 id="20">62,61,3196,3195</quad4>
<!-- ... 605 like lines cut -->
		</Surface>
	</Mesh>
	<MeshDomains>
		<SolidDomain name="Part1" mat="Material1"/>
	</MeshDomains>
	<Boundary>
		<bc name="FixedDisplacement1" type="fix" node_set="@surface:FixedDisplacement1">
			<dofs>x</dofs>
		</bc>
		<bc name="FixedDisplacement2" type="fix" node_set="@surface:FixedDisplacement2">
			<dofs>y</dofs>
		</bc>
		<bc name="FixedDisplacement3" type="fix" node_set="@surface:FixedDisplacement3">
			<dofs>z</dofs>
		</bc>
		<bc name="FixedEffectiveFluidPressure1" type="fix" node_set="@surface:FixedEffectiveFluidPressure1">
			<dofs>p</dofs>
		</bc>
		<bc name="PrescribedEffectiveFluidPressure1" type="prescribe" node_set="PrescribedEffectiveFluidPressure1">
			<dof>p</dof>
			<scale lc="1">0.002</scale>
			<relative>0</relative>
		</bc>
	</Boundary>
	<LoadData>
		<load_controller id="1" type="loadcurve">
			<interpolate>SMOOTH</interpolate>
			<points>
				<point>0,0</point>
				<point>1,1</point>	
				<point>10,1</point>	 
			</points>
		</load_controller>
	</LoadData>
	<Output>
		<plotfile type="febio">
			<var type="displacement"/>
			<var type="relative volume"/>
			<var type="stress"/>
			<var type="effective fluid pressure"/>
			<var type="fluid flux"/>
			<var type="permeability"/>
			<var type="solid stress"/>
		</plotfile>
	</Output>
</febio_spec>
